33
	Energy:     112.5932612
C         -3.84242       -5.00918       16.80912
C         -3.89504       -4.56314       15.46570
C         -5.15307       -4.31553       14.90541
N         -6.22678       -4.55173       15.65198
C         -6.24975       -4.89884       16.93454
C         -5.02981       -5.16676       17.56529
H         -4.99231       -5.46552       18.60468
H         -2.88339       -5.20009       17.27256
H         -2.98870       -4.39973       14.89751
C         -5.47775       -3.76320       13.53754
N         -6.88827       -3.22914       13.56076
H         -5.35325       -4.60188       12.81773
H         -4.76201       -2.96061       13.25018
C         -7.52898       -3.35206       12.24534
H         -6.97831       -2.76425       11.47783
H         -8.58013       -2.99478       12.29540
H         -7.55679       -4.41798       11.93341
C         -6.91859       -1.83154       14.02056
H         -7.96866       -1.48689       14.13015
H         -6.39608       -1.16356       13.30038
H         -6.41761       -1.73578       15.00537
C         -7.63680       -4.91174       17.53246
N         -8.55083       -4.11416       16.63591
H         -7.63256       -4.48697       18.56133
H         -7.94118       -5.97884       17.60776
C         -8.52419       -2.68543       16.98748
H         -9.12010       -2.09962       16.25593
H         -7.48379       -2.30153       16.97387
H         -8.94150       -2.51748       18.00509
C         -9.92529       -4.62898       16.67855
H        -10.57150       -4.05675       15.97852
H        -10.34536       -4.55777       17.70631
H         -9.94445       -5.69092       16.35270
