49
	Energy:     862.9961429
C         -2.77896       -0.85694        0.50200
C         -1.95149       -0.76315        1.63198
C         -0.92908       -1.70566        1.81504
C         -2.52736       -1.84423       -0.45920
C         -1.48617       -2.74914       -0.21005
N         -0.76793       -2.70925        0.91035
H         -3.12961       -1.90492       -1.35816
H         -3.59252       -0.15411        0.36093
H         -2.10846        0.01579        2.36782
H         -0.29818       -1.66390        2.69171
C         -3.25665       -6.66304       -0.06402
C         -2.62958       -7.03393        1.13440
C         -2.72267       -5.63154       -0.84937
C         -1.47285       -6.36745        1.53853
C         -1.57212       -4.97581       -0.39178
N         -1.00956       -5.34628        0.78631
H         -4.15983       -7.17192       -0.37473
H         -3.03943       -7.82093        1.75059
H         -3.21447       -5.33331       -1.76804
H         -0.97377       -6.61918        2.46231
C          4.23871       -1.39193        1.47307
C          4.09853       -2.34848        2.48803
C          3.31898       -1.34627        0.41333
C          3.01957       -3.23082        2.45337
C          2.25629       -2.26605        0.40046
N          2.12573       -3.13640        1.44631
H          5.08109       -0.71159        1.49602
H          4.81867       -2.41268        3.29184
H          3.46509       -0.63788       -0.39545
H          2.87939       -3.97821        3.21872
C          3.59303       -7.61133       -0.16319
C          3.10305       -6.62134       -1.04600
C          2.90473       -7.87488        1.02884
C          1.98820       -5.83634       -0.66907
C          1.98360       -6.89612        1.44984
N          1.55824       -5.91494        0.59942
H          4.51794       -8.15499       -0.37506
H          3.60282       -6.42654       -1.98716
H          3.17193       -8.72895        1.66649
H          1.61473       -6.89611        2.46085
C         -0.92904       -3.77866       -1.06866
N          0.57704       -3.74850       -0.77759
H         -1.23022       -3.62551       -2.12956
C          1.32764       -4.79701       -1.54716
C          1.30397       -2.41030       -0.81005
H          1.99480       -4.38997       -2.33326
H          0.60521       -5.40379       -2.13580
H          0.62663       -1.52666       -0.81827
H          1.86759       -2.29298       -1.76047
