27
	Energy:      -3.5188140
N          0.30889        7.58351       18.06621
C          1.42295        7.69076       17.30755
H          1.25547        7.89591       16.25238
C          2.70634        7.55658       17.80808
H          3.56961        7.65586       17.15620
C          2.85872        7.30553       19.16732
H          3.85525        7.21601       19.59549
C          1.72917        7.18429       19.97557
H          1.86294        7.04000       21.03519
C          0.49113        7.31311       19.37533
N         -0.72710        7.21224       20.14429
C         -1.84760        7.63825       19.55552
N         -2.86054        7.59328       20.42259
C         -2.41047        7.02017       21.60001
C         -1.04118        6.73758       21.41472
C         -4.20413        8.04139       20.11335
H         -4.23215        8.46704       19.10641
H         -4.50477        8.80603       20.83463
H         -4.88873        7.19049       20.16401
C         -0.30756        6.07960       22.40372
C         -0.98918        5.76775       23.58982
C         -2.34612        6.08429       23.77533
C         -3.09188        6.71536       22.77531
H         -2.82969        5.81802       24.71610
H         -4.14235        6.94585       22.90340
H          0.72659        5.78970       22.27840
H         -0.45398        5.25553       24.39124
